FoamFile { version 2.0; format ascii; class dictionary; object blockMeshDict; }
scale 1;
vertices
(
    (0    -1 -1)
    (6.283185 -1 -1)
    (6.283185  1 -1)
    (0     1 -1)
    (0    -1  1)
    (6.283185 -1  1)
    (6.283185  1  1)
    (0     1  1)
);
blocks
(
    hex (0 1 2 3 4 5 6 7) (96 96 96) simpleGrading (1 1 1)
);
edges ();
boundary
(
    inlet  { type cyclic; neighbourPatch outlet; faces ((0 4 7 3)); }
    outlet { type cyclic; neighbourPatch inlet;  faces ((1 2 6 5)); }
    walls
    {
        type wall;
        faces
        (
            (0 1 5 4)
            (3 7 6 2)
            (0 3 2 1)
            (4 5 6 7)
        );
    }
);
