FoamFile { version 2.0; format ascii; class dictionary; object snappyHexMeshDict; }

castellatedMesh true;
snap            true;
addLayers       false;

geometry
{
    sphere
    {
        type searchableSphere;
        centre (0 0 0);
        radius 0.5;
    }
}

castellatedMeshControls
{
    maxLocalCells 1000000;
    maxGlobalCells 4000000;
    minRefinementCells 10;
    maxLoadUnbalance 0.10;
    nCellsBetweenLevels 3;

    features ();

    refinementSurfaces
    {
        sphere
        {
            level (4 4);
            patchInfo { type wall; }
        }
    }

    resolveFeatureAngle 30;

    refinementRegions
    {
        sphere
        {
            mode distance;
            levels ((1.0 3) (2.0 2) (4.0 1));
        }
    }

    locationInMesh (3 0 0);
    allowFreeStandingZoneFaces true;
}

snapControls
{
    nSmoothPatch 3;
    tolerance 2.0;
    nSolveIter 30;
    nRelaxIter 5;
    nFeatureSnapIter 10;
    implicitFeatureSnap false;
    explicitFeatureSnap true;
    multiRegionFeatureSnap false;
}

addLayersControls
{
    relativeSizes true;
    layers {}
    expansionRatio 1.0;
    finalLayerThickness 0.3;
    minThickness 0.1;
    nGrow 0;
    featureAngle 60;
    nRelaxIter 3;
    nSmoothSurfaceNormals 1;
    nSmoothNormals 3;
    nSmoothThickness 10;
    maxFaceThicknessRatio 0.5;
    maxThicknessToMedialRatio 0.3;
    minMedialAxisAngle 90;
    nBufferCellsNoExtrude 0;
    nLayerIter 50;
}

meshQualityControls
{
    maxNonOrtho 65;
    maxBoundarySkewness 20;
    maxInternalSkewness 4;
    maxConcave 80;
    minVol 1e-13;
    minTetQuality -1e30;
    minArea -1;
    minTwist 0.02;
    minDeterminant 0.001;
    minFaceWeight 0.05;
    minVolRatio 0.01;
    minTriangleTwist -1;
    nSmoothScale 4;
    errorReduction 0.75;
}

writeFlags (scalarLevels layerSets layerFields);

mergeTolerance 1e-6;
