FoamFile { version 2.0; format ascii; class dictionary; object controlDict; }
libs (nnTurbulenceModels);
application simpleFoam; startFrom startTime; startTime 0;
stopAt endTime; endTime 100; deltaT 1;
writeControl timeStep; writeInterval 100; purgeWrite 1;
writeFormat ascii; writePrecision 8; writeCompression off;
timeFormat general; timePrecision 6; runTimeModifiable false;
