FoamFile { version 2.0; format ascii; class dictionary; object fvSolution; }
solvers
{
    p { solver GAMG; tolerance 1e-06; relTol 0.01; smoother GaussSeidel; nPreSweeps 0; nPostSweeps 2; cacheAgglomeration true; nCellsInCoarsestLevel 10; agglomerator faceAreaPair; mergeLevels 1; }
    U { solver smoothSolver; smoother symGaussSeidel; tolerance 1e-06; relTol 0.1; }
    "(k|omega)" { solver smoothSolver; smoother twoStageGaussSeidel; nSweeps -1; tolerance 0; relTol 0; }
}
SIMPLE { nNonOrthogonalCorrectors 0; consistent yes; pRefCell 0; pRefValue 0; }
relaxationFactors { equations { U 0.7; k 0.7; omega 0.7; } fields { p 0.3; } }
